scripts/data/matpower/ESE/ese_base_seco.m
%% MATPOWER Case Format : Version 2
function mpc = ese_base_seco
mpc.version = '2';

%%-----  Power Flow Data  -----%%
%% system MVA base
mpc.baseMVA = 100.0;
%% bus data
%    bus_i    type    Pd    Qd    Gs    Bs    area    Vm    Va    baseKV    zone    Vmax    Vmin
mpc.bus = [
	1000	3	0.0	0.0	0.0	0.0	10	1.029	0.0	69.0	1	1.05	0.95				
	1010	1	0.0	0.0	0.0	0.0	12	1.028	0.0	69.0	1	1.05	0.95				
	1011	1	18.58	6.58	0.0	6.09	11	1.028	0.0	13.8	1	1.05	0.95				
	1012	1	20.31	7.449999999999999	0.0	6.09	11	1.028	0.0	13.8	1	1.05	0.95				
	1030	1	0.0	0.0	0.0	0.0	12	1.028	0.0	69.0	1	1.05	0.95				
	1040	1	0.0	0.0	0.0	0.0	12	1.028	0.0	69.0	1	1.05	0.95				
	1041	1	23.66	7.99	0.0	8.13	11	1.028	0.0	13.8	1	1.05	0.95				
	1042	1	26.619999999999997	6.64	0.0	8.13	11	1.028	0.0	13.8	1	1.05	0.95				
	1060	1	0.0	0.0	0.0	0.0	12	1.028	0.0	69.0	1	1.05	0.95				
	1061	1	5.31	1.33	0.0	1.02	11	1.028	0.0	13.8	1	1.05	0.95				
	1080	1	0.0	0.0	0.0	0.0	12	1.028	0.0	69.0	1	1.05	0.95				
	1090	1	0.0	0.0	0.0	0.0	12	1.028	0.0	69.0	1	1.05	0.95				
	1091	1	7.519999999999999	3.35	0.0	1.02	11	1.028	0.0	13.8	1	1.05	0.95				
	1100	1	0.0	0.0	0.0	0.0	12	1.028	0.0	69.0	1	1.05	0.95				
	1110	1	0.0	0.0	0.0	0.0	12	1.028	0.0	69.0	1	1.05	0.95				
	1111	1	5.02	2.43	0.0	1.02	11	1.028	0.0	13.8	1	1.05	0.95				
	1160	1	0.0	0.0	0.0	0.0	12	1.028	0.0	69.0	1	1.05	0.95				
	1170	1	0.0	0.0	0.0	0.0	12	1.028	0.0	69.0	1	1.05	0.95				
	1200	1	0.0	0.0	0.0	0.0	12	1.028	0.0	69.0	1	1.05	0.95				
	1201	1	13.25	5.45	0.0	3.05	11	1.028	0.0	13.8	1	1.05	0.95				
	1202	1	10.81	4.97	0.0	3.05	11	1.028	0.0	13.8	1	1.05	0.95				
	1210	1	0.0	0.0	0.0	0.0	12	1.028	0.0	69.0	1	1.05	0.95				
	1211	1	14.029999999999998	5.02	0.0	6.09	11	1.028	0.0	13.8	1	1.05	0.95				
	1212	1	12.13	4.38	0.0	3.05	11	1.028	0.0	13.8	1	1.05	0.95				
	1220	1	0.0	0.0	0.0	0.0	12	1.028	0.0	69.0	1	1.05	0.95				
	1239	1	0.14	0.14	0.0	0.0	12	1.028	0.0	69.0	1	1.05	0.95				
	1269	1	4.81	1.29	0.0	0.0	12	1.028	0.0	69.0	1	1.05	0.95				
	1279	1	15.289999999999997	3.7800000000000002	0.0	0.0	12	1.028	0.0	69.0	1	1.05	0.95				
	1299	4	0.0	0.0	0.0	0.0	12	1.028	0.0	69.0	1	1.05	0.95				
	1309	1	0.0	0.0	0.0	0.0	12	1.028	0.0	69.0	1	1.05	0.95				
	2000	3	0.0	0.0	0.0	0.0	20	1.029	0.0	69.0	1	1.05	0.95				
	2001	1	20.16	7.049999999999999	0.0	6.09	21	1.028	0.0	13.8	1	1.05	0.95				
	2010	1	0.0	0.0	0.0	0.0	22	1.028	0.0	69.0	1	1.05	0.95				
	2011	1	10.68	5.9	0.0	2.03	21	1.028	0.0	13.8	1	1.05	0.95				
	2020	1	0.0	0.0	0.0	0.0	22	1.028	0.0	69.0	1	1.05	0.95				
	2021	1	11.52	6.02	0.0	2.03	21	1.028	0.0	13.8	1	1.05	0.95				
	2030	1	0.0	0.0	0.0	0.0	22	1.028	0.0	69.0	1	1.05	0.95				
	2031	1	20.14	8.16	0.0	6.09	21	1.028	0.0	13.8	1	1.05	0.95				
	2040	1	0.0	0.0	0.0	0.0	22	1.028	0.0	69.0	1	1.05	0.95				
	2041	1	9.39	5.1	0.0	2.03	21	1.028	0.0	13.8	1	1.05	0.95				
	2050	1	0.0	0.0	0.0	0.0	22	1.028	0.0	69.0	1	1.05	0.95				
	2051	1	3.04	1.22	0.0	1.02	21	1.028	0.0	13.8	1	1.05	0.95				
	2069	1	4.36	2.0	0.0	0.0	22	1.028	0.0	69.0	1	1.05	0.95				
	2070	1	0.0	0.0	0.0	0.0	22	1.028	0.0	69.0	1	1.05	0.95				
	2071	1	7.46	4.0	0.0	1.02	21	1.028	0.0	13.8	1	1.05	0.95				
	2079	1	1.56	0.51	0.0	0.0	22	1.028	0.0	69.0	1	1.05	0.95				
	2080	1	0.0	0.0	0.0	0.0	22	1.028	0.0	69.0	1	1.05	0.95				
	2081	1	5.38	2.45	0.0	2.54	21	1.028	0.0	13.8	1	1.05	0.95				
	2089	1	4.35	2.3	0.0	0.0	22	1.028	0.0	69.0	1	1.05	0.95				
	2090	1	0.0	0.0	0.0	0.0	22	1.028	0.0	69.0	1	1.05	0.95				
	2091	1	7.8	3.04	0.0	3.05	21	1.028	0.0	13.8	1	1.05	0.95				
	2100	1	0.0	0.0	0.0	0.0	22	1.028	0.0	69.0	1	1.05	0.95				
	2101	1	13.750000000000002	6.47	0.0	4.06	21	1.028	0.0	13.8	1	1.05	0.95				
	2120	1	0.0	0.0	0.0	0.0	22	1.028	0.0	69.0	1	1.05	0.95				
	2121	1	5.77	2.45	0.0	2.03	21	1.028	0.0	13.8	1	1.05	0.95				
	2140	1	0.0	0.0	0.0	0.0	22	1.028	0.0	69.0	1	1.05	0.95				
	2141	1	11.49	3.9900000000000007	0.0	2.03	21	1.028	0.0	13.8	1	1.05	0.95				
	2150	1	0.0	0.0	0.0	0.0	22	1.028	0.0	69.0	1	1.05	0.95				
	2170	1	0.0	0.0	0.0	0.0	22	1.028	0.0	69.0	1	1.05	0.95				
	2171	1	5.31	3.3000000000000003	0.0	3.05	21	1.028	0.0	13.8	1	1.05	0.95				
	2180	1	0.0	0.0	0.0	0.0	22	1.028	0.0	69.0	1	1.05	0.95				
	2181	1	6.4	2.05	0.0	2.03	21	1.028	0.0	13.8	1	1.05	0.95				
	2190	1	0.0	0.0	0.0	0.0	22	1.028	0.0	69.0	1	1.05	0.95				
	2191	1	8.76	5.21	0.0	1.02	21	1.028	0.0	13.8	1	1.05	0.95				
	2200	1	0.0	0.0	0.0	0.0	22	1.028	0.0	69.0	1	1.05	0.95				
	2201	1	4.82	2.32	0.0	2.03	21	1.028	0.0	13.8	1	1.05	0.95				
	2210	1	0.0	0.0	0.0	0.0	22	1.028	0.0	69.0	1	1.05	0.95				
	2211	1	3.19	1.94	0.0	1.02	21	1.028	0.0	13.8	1	1.05	0.95				
	2220	1	0.0	0.0	0.0	0.0	22	1.028	0.0	69.0	1	1.05	0.95				
	2221	1	0.8100000000000002	0.3	0.0	0.0	21	1.028	0.0	13.8	1	1.05	0.95				
	2230	1	0.0	0.0	0.0	0.0	22	1.028	0.0	69.0	1	1.05	0.95				
	2249	4	0.0	0.0	0.0	0.0	23	1.028	0.0	69.0	1	1.05	0.95				
	2259	4	0.0	0.0	0.0	0.0	24	1.028	0.0	69.0	1	1.05	0.95				
	2269	4	0.0	0.0	0.0	0.0	25	1.028	0.0	69.0	1	1.05	0.95				
	2279	4	0.0	0.0	0.0	0.0	26	1.028	0.0	69.0	1	1.05	0.95				
	3000	3	0.0	0.0	0.0	0.0	30	1.029	0.0	69.0	1	1.05	0.95				
	3010	1	0.0	0.0	0.0	0.0	32	1.028	0.0	69.0	1	1.05	0.95				
	3011	1	13.43	6.619999999999999	0.0	6.09	31	1.028	0.0	13.8	1	1.05	0.95				
	3020	1	0.0	0.0	0.0	0.0	32	1.028	0.0	69.0	1	1.05	0.95				
	3029	1	9.53	3.3300000000000005	0.0	0.0	32	1.028	0.0	69.0	1	1.05	0.95				
	3049	1	1.45	0.2	0.0	0.0	32	1.028	0.0	69.0	1	1.05	0.95				
	3059	1	5.04	1.83	0.0	0.0	32	1.028	0.0	69.0	1	1.05	0.95				
	4000	3	0.0	0.0	0.0	0.0	40	1.029	0.0	69.0	1	1.05	0.95				
	4010	1	0.0	0.0	0.0	0.0	40	1.028	0.0	69.0	1	1.05	0.95				
	4011	1	10.59	4.07	0.0	4.06	40	1.028	0.0	13.8	1	1.05	0.95				
	4020	1	0.0	0.0	0.0	0.0	42	1.028	0.0	69.0	1	1.05	0.95				
	4021	1	5.27	2.35	0.0	2.54	41	1.028	0.0	13.8	1	1.05	0.95				
	5000	3	0.0	0.0	0.0	0.0	50	1.029	0.0	69.0	1	1.05	0.95				
	5010	1	0.0	0.0	0.0	0.0	52	1.028	0.0	69.0	1	1.05	0.95				
	5011	1	14.37	6.309999999999999	0.0	6.09	51	1.028	0.0	13.8	1	1.05	0.95				
	5012	1	14.150000000000002	6.14	0.0	6.09	51	1.028	0.0	13.8	1	1.05	0.95				
	5020	1	0.0	0.0	0.0	0.0	52	1.028	0.0	69.0	1	1.05	0.95				
	5021	1	11.84	4.61	0.0	6.09	51	1.028	0.0	13.8	1	1.05	0.95				
	5022	1	13.18	5.36	0.0	6.09	51	1.028	0.0	13.8	1	1.05	0.95				
	5023	1	0.0	0.0	0.0	0.0	52	1.028	0.0	69.0	1	1.05	0.95				
	5030	1	0.0	0.0	0.0	0.0	52	1.028	0.0	69.0	1	1.05	0.95				
	5031	1	13.320000000000002	6.849999999999999	0.0	6.09	51	1.028	0.0	13.8	1	1.05	0.95				
	5045	1	0.0	0.0	0.0	0.0	52	1.028	0.0	69.0	1	1.05	0.95				
	5049	1	1.17	0.56	0.0	0.0	52	1.028	0.0	69.0	1	1.05	0.95				
	5050	1	0.0	0.0	0.0	0.0	52	1.028	0.0	69.0	1	1.05	0.95				
	5060	1	0.0	0.0	0.0	0.0	52	1.028	0.0	69.0	1	1.05	0.95				
	5061	1	5.04	3.73	0.0	2.03	51	1.028	0.0	13.8	1	1.05	0.95				
	5070	1	0.0	0.0	0.0	0.0	52	1.028	0.0	69.0	1	1.05	0.95				
	5071	1	19.92	7.91	0.0	6.09	51	1.028	0.0	13.8	1	1.05	0.95				
	5072	1	13.65	5.07	0.0	6.09	51	1.028	0.0	13.8	1	1.05	0.95				
	5085	1	0.0	0.0	0.0	0.0	52	1.028	0.0	69.0	1	1.05	0.95				
	5089	1	3.8699999999999997	1.43	0.0	0.0	52	1.028	0.0	69.0	1	1.05	0.95				
	5099	1	7.8	3.32	0.0	0.0	52	1.028	0.0	69.0	1	1.05	0.95				
];

%% generator data
%    bus    Pg    Qg    Qmax    Qmin    Vg    mBase    status    Pmax    Pmin    Pc1    Pc2    Qc1min    Qc1max    Qc2min    Qc2max    ramp_agc    ramp_10    ramp_30    ramp_q    apf
mpc.gen = [
	3000	0.0	0.0	99999.0	-9999.0	1.029	100.0	1	99999.0	0.0															
	2000	0.0	0.0	99999.0	-9999.0	1.029	100.0	1	99999.0	0.0															
	2259	0.0	0.0	0.0	0.0	1.028	100.0	1	99999.0	0.0															
	2279	0.0	0.0	0.0	0.0	1.028	100.0	1	99999.0	0.0															
	2269	0.0	0.0	0.0	0.0	1.028	100.0	1	99999.0	0.0															
	5000	0.0	0.0	99999.0	-9999.0	1.029	100.0	1	99999.0	0.0															
	1000	0.0	0.0	99999.0	-9999.0	1.029	100.0	1	99999.0	0.0															
	2249	0.0	0.0	0.0	0.0	1.028	100.0	1	99999.0	0.0															
	4000	0.0	0.0	99999.0	-9999.0	1.029	100.0	1	99999.0	0.0															
];

%% branch data
%    f_bus    t_bus    r    x    b    rateA    rateB    rateC    ratio    angle    status    angmin    angmax
mpc.branch = [
	1170	1239	0.0332	0.0496	0.0007000000000000001	36.0	41.0	36.0	0	0	1	-59.99999999999999	59.99999999999999								
	1000	1010	0.0747	0.174	0.0033	56.00000000000001	63.0	56.00000000000001	0	0	1	-59.99999999999999	59.99999999999999								
	2140	2150	0.0074	0.0147	0.0003	49.0	55.00000000000001	49.0	0	0	1	-59.99999999999999	59.99999999999999								
	2150	2089	0.0625	0.053899999999999997	0.0007000000000000001	24.0	27.0	24.0	0	0	1	-59.99999999999999	59.99999999999999								
	1000	1040	0.056100000000000004	0.11359999999999999	0.0019	49.0	55.00000000000001	49.0	0	0	1	-59.99999999999999	59.99999999999999								
	3020	3029	0.041100000000000005	0.061399999999999996	0.0009	36.0	41.0	36.0	0	0	1	-59.99999999999999	59.99999999999999								
	4010	4020	0.09140000000000001	0.1506	0.0024	36.0	41.0	36.0	0	0	1	-59.99999999999999	59.99999999999999								
	2120	2070	0.1005	0.1998	0.0034000000000000002	49.0	55.00000000000001	49.0	0	0	1	-59.99999999999999	59.99999999999999								
	2070	2269	0.0942	0.0974	0.0013	32.0	35.0	32.0	0	0	1	-59.99999999999999	59.99999999999999								
	2010	2190	0.3013	0.4581	0.0068000000000000005	36.0	41.0	36.0	0	0	1	-59.99999999999999	59.99999999999999								
	4000	4010	0.41450000000000004	0.6206	0.009300000000000001	36.0	41.0	36.0	0	0	1	-59.99999999999999	59.99999999999999								
	5010	5085	0.0206	0.030699999999999998	0.0005	36.0	41.0	36.0	0	0	1	-59.99999999999999	59.99999999999999								
	2000	2010	0.20379999999999998	0.17579999999999998	0.0023	24.0	27.0	24.0	0	0	1	-59.99999999999999	59.99999999999999								
	1210	1030	0.0067	0.016200000000000003	0.0003	56.00000000000001	63.0	56.00000000000001	0	0	1	-59.99999999999999	59.99999999999999								
	1160	2140	0.055099999999999996	0.1121	0.0018	49.0	55.00000000000001	49.0	0	0	0	-59.99999999999999	59.99999999999999								
	2000	2140	0.15439999999999998	0.3129	0.0053	49.0	55.00000000000001	49.0	0	0	1	-59.99999999999999	59.99999999999999								
	5000	5010	0.0408	0.08310000000000001	0.0014000000000000002	49.0	55.00000000000001	49.0	0	0	1	-59.99999999999999	59.99999999999999								
	2070	2100	0.23329999999999998	0.4643	0.0079	49.0	55.00000000000001	49.0	0	0	1	-59.99999999999999	59.99999999999999								
	5000	5099	0.0935	0.1857	0.0032	49.0	55.00000000000001	49.0	0	0	1	-59.99999999999999	59.99999999999999								
	2180	2249	0.0004	0.0006	0.0	36.0	41.0	36.0	0	0	1	-59.99999999999999	59.99999999999999								
	1000	1210	0.0675	0.1624	0.0031	56.00000000000001	63.0	56.00000000000001	0	0	1	-59.99999999999999	59.99999999999999								
	2180	2249	0.0004	0.0006	0.0	36.0	41.0	36.0	0	0	1	-59.99999999999999	59.99999999999999								
	2040	2050	0.5333	0.4606	0.0060999999999999995	24.0	27.0	24.0	0	0	1	-59.99999999999999	59.99999999999999								
	1100	1110	0.10289999999999999	0.1535	0.0023	36.0	41.0	36.0	0	0	1	-59.99999999999999	59.99999999999999								
	5000	5030	0.0277	0.1261	0.0023	56.00000000000001	63.0	56.00000000000001	0	0	1	-59.99999999999999	59.99999999999999								
	2000	2140	0.15439999999999998	0.3129	0.0053	49.0	55.00000000000001	49.0	0	0	1	-59.99999999999999	59.99999999999999								
	1000	1080	0.1909	0.2851	0.0043	36.0	41.0	36.0	0	0	1	-59.99999999999999	59.99999999999999								
	2070	2080	0.14730000000000001	0.2991	0.005	49.0	55.00000000000001	49.0	0	0	1	-59.99999999999999	59.99999999999999								
	2000	2010	0.058899999999999994	0.1507	0.0025	56.00000000000001	63.0	56.00000000000001	0	0	1	-59.99999999999999	59.99999999999999								
	5020	5045	0.0121	0.0259	0.0005	56.00000000000001	63.0	56.00000000000001	0	0	1	-59.99999999999999	59.99999999999999								
	2190	2210	0.17379999999999998	0.35350000000000004	0.0059	49.0	55.00000000000001	49.0	0	0	1	-59.99999999999999	59.99999999999999								
	1220	1309	0.034	0.1482	0.003	85.0	94.0	85.0	0	0	1	-59.99999999999999	59.99999999999999								
	5000	5010	0.0408	0.08109999999999999	0.0014000000000000002	49.0	55.00000000000001	49.0	0	0	1	-59.99999999999999	59.99999999999999								
	2000	2020	0.1219	0.182	0.0027	36.0	41.0	36.0	0	0	1	-59.99999999999999	59.99999999999999								
	5050	5060	0.04769999999999999	0.09609999999999999	0.0016	49.0	55.00000000000001	49.0	0	0	1	-59.99999999999999	59.99999999999999								
	2220	2090	0.1195	0.20079999999999998	0.003	36.0	41.0	36.0	0	0	1	-59.99999999999999	59.99999999999999								
	2030	2040	0.33	0.2848	0.0038	24.0	27.0	24.0	0	0	1	-59.99999999999999	59.99999999999999								
	5030	5050	0.054400000000000004	0.08109999999999999	0.0012	36.0	41.0	36.0	0	0	1	-59.99999999999999	59.99999999999999								
	3000	3010	0.041299999999999996	0.1048	0.0018	56.00000000000001	63.0	56.00000000000001	0	0	1	-59.99999999999999	59.99999999999999								
	1220	1299	0.051500000000000004	0.12789999999999999	0.0023	56.00000000000001	63.0	56.00000000000001	0	0	1	-59.99999999999999	59.99999999999999								
	2000	2070	0.2555	0.38159999999999994	0.005699999999999999	36.0	41.0	36.0	0	0	1	-59.99999999999999	59.99999999999999								
	1000	1200	0.0451	0.09880000000000001	0.0018	56.00000000000001	63.0	56.00000000000001	0	0	1	-59.99999999999999	59.99999999999999								
	2100	3020	0.0007000000000000001	0.0011	0.0	36.0	41.0	36.0	0	0	0	-59.99999999999999	59.99999999999999								
	2150	2170	0.050199999999999995	0.09970000000000001	0.0017000000000000001	49.0	55.00000000000001	49.0	0	0	1	-59.99999999999999	59.99999999999999								
	1000	1220	0.039900000000000005	0.17420000000000002	0.0034000000000000002	85.0	94.0	85.0	0	0	1	-59.99999999999999	59.99999999999999								
	2140	2170	0.1589	0.1371	0.0018	24.0	27.0	24.0	0	0	1	-59.99999999999999	59.99999999999999								
	1060	1100	0.2377	0.2051	0.0027	24.0	27.0	24.0	0	0	1	-59.99999999999999	59.99999999999999								
	1000	1160	0.0467	0.0951	0.0015	49.0	55.00000000000001	49.0	0	0	1	-59.99999999999999	59.99999999999999								
	2170	2200	0.08310000000000001	0.16510000000000002	0.0028000000000000004	49.0	55.00000000000001	49.0	0	0	1	-59.99999999999999	59.99999999999999								
	2140	2259	0.0662	0.0574	0.0007000000000000001	24.0	27.0	24.0	0	0	1	-59.99999999999999	59.99999999999999								
	3010	3059	0.15259999999999999	0.25670000000000004	0.0039000000000000003	36.0	41.0	36.0	0	0	1	-59.99999999999999	59.99999999999999								
	5023	5070	0.0189	0.0801	0.0017000000000000001	85.0	94.0	85.0	0	0	0	-59.99999999999999	59.99999999999999								
	3000	3010	0.041299999999999996	0.1048	0.0018	56.00000000000001	63.0	56.00000000000001	0	0	1	-59.99999999999999	59.99999999999999								
	5000	5023	0.0009	0.002	0.0	56.00000000000001	63.0	56.00000000000001	0	0	1	-59.99999999999999	59.99999999999999								
	5045	5049	0.0052	0.0104	0.0002	49.0	55.00000000000001	49.0	0	0	1	-59.99999999999999	59.99999999999999								
	1000	1170	0.0472	0.09380000000000001	0.0016	49.0	55.00000000000001	49.0	0	0	1	-59.99999999999999	59.99999999999999								
	2230	2100	0.22030000000000002	0.3361	0.0048	36.0	41.0	36.0	0	0	1	-59.99999999999999	59.99999999999999								
	5023	5020	0.046	0.1007	0.0018	56.00000000000001	63.0	56.00000000000001	0	0	1	-59.99999999999999	59.99999999999999								
	1000	1200	0.0451	0.09880000000000001	0.0018	56.00000000000001	63.0	56.00000000000001	0	0	1	-59.99999999999999	59.99999999999999								
	2070	2230	0.1286	0.196	0.0028000000000000004	36.0	41.0	36.0	0	0	1	-59.99999999999999	59.99999999999999								
	2190	2220	0.1349	0.2267	0.0034000000000000002	36.0	41.0	36.0	0	0	1	-59.99999999999999	59.99999999999999								
	3010	3020	0.2943	0.4397	0.0066	36.0	41.0	36.0	0	0	1	-59.99999999999999	59.99999999999999								
	2230	2279	0.2173	0.1889	0.0025	24.0	27.0	24.0	0	0	1	-59.99999999999999	59.99999999999999								
	1000	1060	0.22010000000000002	0.18989999999999999	0.0025	24.0	27.0	24.0	0	0	1	-59.99999999999999	59.99999999999999								
	5050	5099	0.0131	0.0195	0.0003	36.0	41.0	36.0	0	0	0	-59.99999999999999	59.99999999999999								
	1080	1100	0.048499999999999995	0.0724	0.0011	36.0	41.0	36.0	0	0	1	-59.99999999999999	59.99999999999999								
	1000	1220	0.039900000000000005	0.17420000000000002	0.0034000000000000002	85.0	94.0	85.0	0	0	1	-59.99999999999999	59.99999999999999								
	5085	5030	0.0123	0.0191	0.0003	36.0	41.0	36.0	0	0	1	-59.99999999999999	59.99999999999999								
	1030	1010	0.019	0.044199999999999996	0.0009	56.00000000000001	63.0	56.00000000000001	0	0	1	-59.99999999999999	59.99999999999999								
	2070	2080	0.3992	0.3446	0.0046	24.0	27.0	24.0	0	0	1	-59.99999999999999	59.99999999999999								
	5010	5020	0.0245	0.0538	0.001	56.00000000000001	63.0	56.00000000000001	0	0	1	-59.99999999999999	59.99999999999999								
	1030	1269	0.0002	0.0005	0.0	56.00000000000001	63.0	56.00000000000001	0	0	1	-59.99999999999999	59.99999999999999								
	1309	1279	0.0046	0.020099999999999996	0.0004	85.0	94.0	85.0	0	0	1	-59.99999999999999	59.99999999999999								
	1080	1090	0.027200000000000002	0.023399999999999997	0.0003	24.0	27.0	24.0	0	0	1	-59.99999999999999	59.99999999999999								
	1220	1299	0.051500000000000004	0.12789999999999999	0.0023	56.00000000000001	63.0	56.00000000000001	0	0	1	-59.99999999999999	59.99999999999999								
	2000	2030	0.18239999999999998	0.3705	0.0062	49.0	55.00000000000001	49.0	0	0	1	-59.99999999999999	59.99999999999999								
	2100	3010	0.295	0.44420000000000004	0.006500000000000001	36.0	41.0	36.0	0	0	0	-59.99999999999999	59.99999999999999								
	2170	2180	0.1249	0.1864	0.0028000000000000004	36.0	41.0	36.0	0	0	1	-59.99999999999999	59.99999999999999								
	2000	2030	0.273	0.4079	0.0060999999999999995	36.0	41.0	36.0	0	0	1	-59.99999999999999	59.99999999999999								
	2030	2069	0.0541	0.08539999999999999	0.0015	36.0	41.0	36.0	0	0	1	-59.99999999999999	59.99999999999999								
	5045	5070	0.0033	0.006999999999999999	0.0001	56.00000000000001	63.0	56.00000000000001	0	0	1	-59.99999999999999	59.99999999999999								
	1220	1279	0.0387	0.16829999999999998	0.0034000000000000002	85.0	94.0	85.0	0	0	1	-59.99999999999999	59.99999999999999								
	2080	2090	0.4818	0.41609999999999997	0.0055000000000000005	24.0	27.0	24.0	0	0	1	-59.99999999999999	59.99999999999999								
	2140	2079	0.0255	0.042800000000000005	0.0006	36.0	41.0	36.0	0	0	1	-59.99999999999999	59.99999999999999								
	5085	5089	0.0044	0.0066	0.0001	36.0	41.0	36.0	0	0	1	-59.99999999999999	59.99999999999999								
	2000	2120	0.1013	0.2014	0.0034000000000000002	49.0	55.00000000000001	49.0	0	0	1	-59.99999999999999	59.99999999999999								
	3010	3049	0.083	0.12390000000000001	0.0018	36.0	41.0	36.0	0	0	1	-59.99999999999999	59.99999999999999								
	1170	2140	0.055099999999999996	0.10949999999999999	0.0019	49.0	55.00000000000001	49.0	0	0	0	-59.99999999999999	59.99999999999999								
	1000	1040	0.056100000000000004	0.1137	0.0019	49.0	55.00000000000001	49.0	0	0	1	-59.99999999999999	59.99999999999999								
	1200	1202	0.0235	0.5085000000000001	0.0	20.0	25.0	25.0	0.95	-0.0	1	-59.99999999999999	59.99999999999999								
	2030	2031	0.0235	0.48840000000000006	0.0	20.0	25.0	25.0	0.95	-0.0	1	-59.99999999999999	59.99999999999999								
	3010	3011	0.054000000000000006	0.7972	0.0	10.0	12.5	12.5	0.957	-0.0	1	-59.99999999999999	59.99999999999999								
	2000	2001	0.0173	0.225	0.0	30.0	40.0	40.0	1.0	-0.0	1	-59.99999999999999	59.99999999999999								
	5070	5071	0.0235	0.6391	0.0	20.0	25.0	25.0	0.95	-0.0	1	-59.99999999999999	59.99999999999999								
	2020	2021	0.027999999999999997	0.6247	0.0	15.0	20.0	20.0	1.0	-0.0	1	-59.99999999999999	59.99999999999999								
	1110	1111	0.10400000000000001	1.4221000000000001	0.0	5.0	7.200000000000001	7.200000000000001	1.026	-0.0	1	-59.99999999999999	59.99999999999999								
	2120	2121	0.054000000000000006	0.8072	0.0	10.0	12.5	12.5	0.957	-0.0	1	-59.99999999999999	59.99999999999999								
	2011	2010	0.027999999999999997	0.7348	0.0	15.0	25.0	25.0	1.0	-0.0	1	-59.99999999999999	59.99999999999999								
	5020	5022	0.0235	0.4984	0.0	20.0	25.0	25.0	0.95	-0.0	1	-59.99999999999999	59.99999999999999								
	2200	2201	0.055	0.8070999999999999	0.0	10.0	12.5	12.5	0.95	-0.0	1	-59.99999999999999	59.99999999999999								
	2211	2210	0.10400000000000001	1.354	0.0	5.0	5.0	5.0	1.0	-0.0	1	-59.99999999999999	59.99999999999999								
	1110	1111	0.10400000000000001	1.1952	0.0	5.0	5.0	5.0	1.026	-0.0	1	-59.99999999999999	59.99999999999999								
	5020	5021	0.0235	0.4984	0.0	20.0	25.0	25.0	0.95	-0.0	1	-59.99999999999999	59.99999999999999								
	2140	2141	0.055	0.8070999999999999	0.0	10.0	12.5	12.5	0.95	-0.0	1	-59.99999999999999	59.99999999999999								
	1090	1091	0.10400000000000001	1.1777	0.0	5.0	5.0	5.0	1.053	-0.0	1	-59.99999999999999	59.99999999999999								
	5010	5012	0.0235	0.5085000000000001	0.0	20.0	25.0	25.0	0.95	-0.0	1	-59.99999999999999	59.99999999999999								
	1090	1091	0.10400000000000001	1.165	0.0	5.0	6.25	6.25	1.053	-0.0	1	-59.99999999999999	59.99999999999999								
	2051	2050	0.10400000000000001	1.2351999999999999	0.0	5.0	6.25	6.25	1.026	-0.0	1	-59.99999999999999	59.99999999999999								
	1200	1201	0.0235	0.4979	0.0	20.0	25.0	25.0	0.95	-0.0	1	-59.99999999999999	59.99999999999999								
	2190	2191	0.054000000000000006	0.8022	0.0	10.0	12.5	12.5	0.95	-0.0	1	-59.99999999999999	59.99999999999999								
	1210	1211	0.0235	0.5065	0.0	20.0	25.0	25.0	1.0	-0.0	1	-59.99999999999999	59.99999999999999								
	2180	2181	0.054000000000000006	1.0076	0.0	10.0	12.5	12.5	0.95	-0.0	1	-59.99999999999999	59.99999999999999								
	1040	1041	0.013999999999999999	0.3297	0.0	30.0	40.0	40.0	1.0	-0.0	1	-59.99999999999999	59.99999999999999								
	2100	2101	0.054000000000000006	0.8092	0.0	10.0	12.5	12.5	0.95	-0.0	1	-59.99999999999999	59.99999999999999								
	5030	5031	0.0235	0.505	0.0	20.0	25.0	25.0	1.0	-0.0	1	-59.99999999999999	59.99999999999999								
	4021	4020	0.10400000000000001	1.2411	0.0	5.0	6.25	6.25	1.053	-0.0	1	-59.99999999999999	59.99999999999999								
	2100	2101	0.054000000000000006	0.8101999999999999	0.0	10.0	12.5	12.5	0.95	-0.0	1	-59.99999999999999	59.99999999999999								
	1010	1012	0.0235	0.4814	0.0	20.0	25.0	25.0	0.95	-0.0	1	-59.99999999999999	59.99999999999999								
	2040	2041	0.057999999999999996	0.8019	0.0	10.0	12.5	12.5	0.95	-0.0	1	-59.99999999999999	59.99999999999999								
	1060	1061	0.054000000000000006	0.7972	0.0	10.0	12.5	12.5	0.95	-0.0	1	-59.99999999999999	59.99999999999999								
	4010	4011	0.061900000000000004	0.6792	0.0	10.0	12.5	12.5	0.975	-0.0	1	-59.99999999999999	59.99999999999999								
	2091	2090	0.10400000000000001	1.3096	0.0	5.0	6.25	6.25	1.026	-0.0	1	-59.99999999999999	59.99999999999999								
	2070	2071	0.054000000000000006	0.7981999999999999	0.0	10.0	12.5	12.5	0.95	-0.0	1	-59.99999999999999	59.99999999999999								
	1210	1212	0.0235	0.4949	0.0	20.0	25.0	25.0	1.0	-0.0	1	-59.99999999999999	59.99999999999999								
	1010	1011	0.0235	0.536	0.0	20.0	25.0	25.0	0.95	-0.0	1	-59.99999999999999	59.99999999999999								
	5070	5072	0.0235	0.6361	0.0	20.0	25.0	25.0	0.95	-0.0	1	-59.99999999999999	59.99999999999999								
	5061	5060	0.0313	0.5714	0.0	15.0	25.0	25.0	1.026	-0.0	1	-59.99999999999999	59.99999999999999								
	2081	2080	0.10400000000000001	1.3099	0.0	5.0	6.25	6.25	1.053	-0.0	1	-59.99999999999999	59.99999999999999								
	4010	4011	0.08439999999999999	0.9831	0.0	7.5	9.38	9.38	0.98	-0.0	1	-59.99999999999999	59.99999999999999								
	3010	3011	0.054000000000000006	0.7912	0.0	10.0	12.5	12.5	0.957	-0.0	1	-59.99999999999999	59.99999999999999								
	2091	2090	0.10400000000000001	1.2429000000000001	0.0	5.0	5.0	5.0	1.026	-0.0	1	-59.99999999999999	59.99999999999999								
	5010	5011	0.0235	0.5085000000000001	0.0	20.0	25.0	25.0	0.95	-0.0	1	-59.99999999999999	59.99999999999999								
	2221	2220	0.10400000000000001	1.2848	0.0	5.0	5.0	5.0	1.026	-0.0	1	-59.99999999999999	59.99999999999999								
	2171	2170	0.054000000000000006	0.6353	0.0	10.0	12.5	12.5	0.976	-0.0	1	-59.99999999999999	59.99999999999999								
	1040	1042	0.013999999999999999	0.32939999999999997	0.0	30.0	40.0	40.0	1.0	-0.0	1	-59.99999999999999	59.99999999999999								
];

%%-----  OPF Data  -----%%
%% cost data
%    1    startup    shutdown    n    x1    y1    ...    xn    yn
%    2    startup    shutdown    n    c(n-1)    ...    c0
mpc.gencost = [
	2	0.0	0.0	2	1.0	0.0
	2	0.0	0.0	2	1.0	0.0
	2	0.0	0.0	2	1.0	0.0
	2	0.0	0.0	2	1.0	0.0
	2	0.0	0.0	2	1.0	0.0
	2	0.0	0.0	2	1.0	0.0
	2	0.0	0.0	2	1.0	0.0
	2	0.0	0.0	2	1.0	0.0
	2	0.0	0.0	2	1.0	0.0
];

%% bus names
mpc.bus_name = {
	'JDM 69      '
	'ATL 69      '
	'ATL 13-I    '
	'ATL 13-II   '
	'S. NRT      '
	'GRU 69      '
	'GRU 13-I    '
	'GRU 13-II   '
	'SCT 69      '
	'SCT 13      '
	'D. ITP      '
	'ITP 69      '
	'ITP 13      '
	'SECC. SLG   '
	'SLG 69      '
	'SLG 13      '
	'BLZ I-69    '
	'BLZ II-69   '
	'TCC 69      '
	'TCC 13-I    '
	'TCC 13-II   '
	'CTN 69      '
	'CTN 13-I    '
	'CTN 13-II   '
	'SECC. CMP   '
	'ITG 69      '
	'NRT 69      '
	'CMP 69      '
	'SRZ 69      '
	'BSS 69      '
	'ITB 69      '
	'ITB 13      '
	'FPL 69      '
	'FPL 13      '
	'CJB 69      '
	'CJB 13      '
	'LGT 69      '
	'LGT 13      '
	'SMS 69      '
	'SMS 13      '
	'PVD 69      '
	'PVD 13      '
	'MRT 69      '
	'NSD 69      '
	'NSD 13      '
	'SSA 69      '
	'GCD 69      '
	'GCD 13      '
	'CQR 69      '
	'PTF 69      '
	'PTF 13      '
	'PPR 69      '
	'PPR 13      '
	'MTB 69      '
	'MTB 13      '
	'RCH 69      '
	'RCH 13      '
	'D. CQR      '
	'MRI 69      '
	'MRI 13      '
	'PRT 69      '
	'PRT 13      '
	'NSG 69      '
	'NSG 13      '
	'CMD 69      '
	'CMD 13      '
	'MTA 69      '
	'MTA 13      '
	'LGR 69      '
	'LGR 13      '
	'D. ILT      '
	'CGE BCQ     '
	'UTE SJP     '
	'UTE CPL     '
	'UTE ILT     '
	'PEN 69      '
	'CRP 69      '
	'CRP 13      '
	'D. ADU      '
	'ADU 69      '
	'EBP 69      '
	'MZU 69      '
	'ZBU 69      '
	'XNG 69      '
	'XNG 13      '
	'CRT 69      '
	'CRT 13      '
	'NSC 69      '
	'ARJ 69      '
	'ARJ 13-I    '
	'ARJ 13-II   '
	'URB 69      '
	'URB 13-I    '
	'URB 13-II   '
	'D. URB      '
	'CBT 69      '
	'CBT 13-I    '
	'D. APS      '
	'APS 69      '
	'D. MSQ      '
	'MSQ 69      '
	'MSQ 13      '
	'SRY 69      '
	'SRY 13-I    '
	'SRY 13-II   '
	'D. UFS      '
	'UFS 69      '
	'UPGN 69     '
};

